[General]
network = Network
sim-time-limit = 200s

Network.nodeTx.gen.generationInterval=exponential(0.1)
Network.nodeTx.gen.packetByteSize = 12500
Network.queuePacketData.bufferSize = 200
Network.queuePacketControl.bufferSize = 200
Network.nodeRx.transRx.bufferSize = 200
Network.nodeTx.transTx.bufferSize = 2000000
Network.queuePacketData.serviceTime=exponential(1)
Network.queuePacketControl.serviceTime=exponential(1)