[General]
network = Network
sim-time-limit = 400s

Network.node[{4}].app.interArrivalTime = exponential(1)
Network.node[{4}].app.packetByteSize = 125000
Network.node[{4}].app.destination = 5



